ipss.plugin.3phase/testData/feeder/OpenDSSCapControlMini/DelayedHighVoltageOpen.dss
Clear
New Circuit.CapControlDelayedHigh basekv=12.47 pu=1.04 phases=3 bus1=source
New Line.feeder bus1=source.1.2.3 bus2=capbus.1.2.3 phases=3 r1=0.01 x1=0.02 r0=0.03 x0=0.06 length=1 units=kft
New Load.load1 bus1=capbus.1.2.3 phases=3 conn=wye kv=12.47 kw=900 kvar=300 model=1
New Capacitor.cap1 bus1=capbus.1.2.3 phases=3 conn=wye kv=12.47 kvar=600
New CapControl.capctrl capacitor=cap1 element=Line.feeder terminal=2 type=voltage ptratio=60 onsetting=118 offsetting=121 delay=3600 delayoff=3600
Set mode=daily number=3 stepsize=1h controlmode=time maxcontroliter=20
Set voltagebases=[12.47]
CalcVoltageBases
Solve
